! Controller parameter input file for the NREL15mw_OpenFAST_prelim_v4 wind turbine
!    - File written using NREL Baseline Controller tuning logic on 10/01/19

!------- DEBUG ------------------------------------------------------------
1					! LoggingLevel		- {0: write no debug files, 1: write standard output .dbg-file, 2: write standard output .dbg-file and complete avrSWAP-array .dbg2-file

!------- CONTROLLER FLAGS -------------------------------------------------
1					! F_LPFType			- {1: first-order low-pass filter, 2: second-order low-pass filter}, [rad/s] (currently filters generator speed and pitch control signals)
0					! F_NotchType		- Notch on the measured generator speed {0: disable, 1: enable} 
0					! IPC_ControlMode	- Turn Individual Pitch Control (IPC) for fatigue load reductions (pitch contribution) {0: off, 1: 1P reductions, 2: 1P+2P reductions}
2					! VS_ControlMode	- Generator torque control mode in above rated conditions {0: constant torque, 1: constant power, 2: TSR tracking PI control}
1                   ! PC_ControlMode    - Blade pitch control mode {0: No pitch, fix to fine pitch, 1: active PI blade pitch control}
0					! Y_ControlMode		- Yaw control mode {0: no yaw control, 1: yaw rate control, 2: yaw-by-IPC}
1                   ! SS_Mode           - Setpoint Smoother mode {0: no setpoint smoothing, 1: introduce setpoint smoothing}
2                   ! WE_Mode           - Wind speed estimator mode {0: One-second low pass filtered hub height wind speed, 1: Imersion and Invariance Estimator (Ortega et al.)}
1                   ! PS_Mode           - Peak shaving mode {0: no peak shaving, 1: implement peak shaving}

!------- FILTERS ----------------------------------------------------------
1.570796326			! F_LPFCornerFreq	- Corner frequency (-3dB point) in the low-pass filters, [Hz]
0					! F_LPFDamping		- Damping coefficient [used only when F_FilterType = 2]
0					! F_NotchCornerFreq	- Natural frequency of the notch filter, [rad/s]
0	0				! F_NotchBetaNumDen	- Two notch damping values (numerator and denominator, resp) - determines the width and depth of the notch, [-]
0.5                 ! F_SSCornerFreq    - Corner frequency (-3dB point) in the first order low pass filter for the setpoint smoother, [Hz].

!------- BLADE PITCH CONTROL ----------------------------------------------
130                  ! PC_GS_n			- Amount of gain-scheduling table entries
0.         0.02025652 0.03236561 0.04197961 0.05019233 0.05752674 0.06426482 0.07056845 0.07641538 0.08197347 0.0873371  0.09237725 0.0972993  0.10200672 0.10659189 0.11102717 0.11535109 0.11955181 0.12366665 0.1276622  0.13160494 0.13542283 0.13921422 0.14288265 0.14651601 0.15007715 0.15356672 0.15703725 0.16039868 0.16374299 0.16703819 0.17026463 0.17347751 0.17662345 0.17973167 0.182829 0.18584739 0.18884557 0.1918349  0.19474572 0.19764503 0.2005368 0.20335881 0.20617007 0.2089748  0.21172019 0.21444889 0.21717163 0.21985129 0.2225046  0.22515338 0.22777815 0.23036082 0.23293918 0.23551331 0.23803605 0.24055309 0.24306655 0.24555096 0.24800573 0.25045763 0.25290684 0.25531018 0.25770735 0.26010162 0.26248141 0.26482967 0.26717513 0.2695179  0.27183404 0.27412948 0.2764225 0.27871321 0.28097397 0.28322402 0.28547204 0.28771816 0.28993097 0.29213716 0.29434095 0.2965425  0.29871198 0.30087699 0.30304006 0.30520133 0.30733301 0.30945922 0.31158344 0.31370588 0.315806 0.31789859 0.31998927 0.32207809 0.32414717 0.32620283 0.32825643 0.3303081  0.33235008 0.33437619 0.33640018 0.33842215 0.34044101 0.34243488 0.34442676 0.34641676 0.34840501 0.35037608 0.35233713 0.35429591 0.3562526  0.35820394 0.36014052 0.36207504 0.3640076 0.36593833 0.36785523 0.369765   0.37167291 0.37357904 0.37548085 0.37736254 0.37924219 0.3811199  0.38299575 0.38486302 0.38672061 0.38857584 0.39042881 0.39227961 0.3941183                   ! PC_GS_angles	    - Gain-schedule table: pitch angles
-3.80527535 -3.68520129 -3.57169842 -3.46424167 -3.36236048 -3.26563188 -3.17367462 -3.08614417 -3.00272837 -2.92314377 -2.84713233 -2.77445871 -2.70490777 -2.63828248 -2.57440204 -2.51310025 -2.45422406 -2.3976323 -2.34319454 -2.2907901  -2.24030716 -2.19164192 -2.14469796 -2.09938553 -2.05562104 -2.0133265  -1.97242907 -1.93286065 -1.89455749 -1.85745987 -1.82151175 -1.78666051 -1.75285672 -1.72005384 -1.68820807 -1.65727813 -1.62722506 -1.5980121  -1.56960451 -1.54196943 -1.51507579 -1.48889412 -1.46339654 -1.43855657 -1.41434909 -1.39075027 -1.36773741 -1.34528897 -1.32338444 -1.30200428 -1.28112988 -1.26074352 -1.24082826 -1.22136798 -1.20234725 -1.18375134 -1.16556619 -1.14777833 -1.13037488 -1.11334352 -1.09667243 -1.08035031 -1.06436632 -1.04871004 -1.03337152 -1.01834116 -1.00360978 -0.98916854 -0.97500896 -0.96112287 -0.94750243 -0.93414008 -0.92102857 -0.90816088 -0.89553029 -0.88313029 -0.87095464 -0.8589973 -0.84725244 -0.83571446 -0.82437794 -0.81323764 -0.80228852 -0.79152569 -0.78094444 -0.77054022 -0.76030862 -0.75024537 -0.74034636 -0.7306076 -0.72102523 -0.71159551 -0.70231482 -0.69317966 -0.68418664 -0.67533245 -0.66661391 -0.65802792 -0.64957149 -0.64124171 -0.63303574 -0.62495086 -0.6169844  -0.60913377 -0.60139647 -0.59377007 -0.58625219 -0.57884054 -0.57153287 -0.56432703 -0.55722088 -0.55021239 -0.54329954 -0.5364804 -0.52975307 -0.52311571 -0.51656653 -0.51010378 -0.50372576 -0.49743082 -0.49121735 -0.48508376 -0.47902854 -0.47305018 -0.46714725 -0.4613183 -0.45556198 -0.44987691 -0.4442618  -0.43871536                  ! PC_GS_KP		- Gain-schedule table: pitch controller kp gains
-1.62836093 -1.58255051 -1.53924713 -1.49825044 -1.45938094 -1.42247723 -1.38739388 -1.35399944 -1.32217481 -1.29181186 -1.26281213 -1.23508583 -1.2085509  -1.18313215 -1.15876061 -1.13537287 -1.11291055 -1.09131977 -1.07055079 -1.05055755 -1.0312974  -1.01273074 -0.99482077 -0.97753327 -0.96083633 -0.9447002  -0.92909709 -0.91400103 -0.89938768 -0.88523427 -0.87151942 -0.85822304 -0.84532629 -0.8328114  -0.82066167 -0.80886134 -0.79739555 -0.78625028 -0.77541227 -0.76486899 -0.75460858 -0.74461981 -0.73489202 -0.72541513 -0.71617954 -0.70717616 -0.69839634 -0.68983186 -0.68147489 -0.67331797 -0.66535401 -0.65757625 -0.64997822 -0.64255377 -0.63529702 -0.62820235 -0.62126438 -0.614478   -0.60783827 -0.6013405 -0.59498018 -0.58875299 -0.58265481 -0.57668166 -0.57082974 -0.56509539 -0.5594751  -0.55396551 -0.54856337 -0.54326558 -0.53806914 -0.53297116 -0.52796888 -0.52305963 -0.51824083 -0.51351001 -0.50886478 -0.50430284 -0.49982196 -0.49542001 -0.49109493 -0.4868447  -0.48266741 -0.4785612 -0.47452427 -0.47055487 -0.46665133 -0.46281202 -0.45903537 -0.45531986 -0.45166401 -0.4480664  -0.44452565 -0.44104042 -0.43760942 -0.43423139 -0.43090511 -0.4276294  -0.42440312 -0.42122516 -0.41809444 -0.41500991 -0.41197056 -0.4089754  -0.40602349 -0.40311387 -0.40024567 -0.39741799 -0.39462998 -0.39188082 -0.3891697  -0.38649584 -0.38385846 -0.38125684 -0.37869024 -0.37615797 -0.37365934 -0.37119368 -0.36876035 -0.36635872 -0.36398817 -0.36164809 -0.35933792 -0.35705707 -0.35480499 -0.35258114 -0.350385   -0.34821605 -0.34607378 -0.34395771                  ! PC_GS_KI		- Gain-schedule table: pitch controller ki gains
0. 0. 0. 0. 0. 0. 0. 0. 0. 0. 0. 0. 0. 0. 0. 0. 0. 0. 0. 0. 0. 0. 0. 0. 0. 0. 0. 0. 0. 0. 0. 0. 0. 0. 0. 0. 0. 0. 0. 0. 0. 0. 0. 0. 0. 0. 0. 0. 0. 0. 0. 0. 0. 0. 0. 0. 0. 0. 0. 0. 0. 0. 0. 0. 0. 0. 0. 0. 0. 0. 0. 0. 0. 0. 0. 0. 0. 0. 0. 0. 0. 0. 0. 0. 0. 0. 0. 0. 0. 0. 0. 0. 0. 0. 0. 0. 0. 0. 0. 0. 0. 0. 0. 0. 0. 0. 0. 0. 0. 0. 0. 0. 0. 0. 0. 0. 0. 0. 0. 0. 0. 0. 0. 0. 0. 0. 0. 0. 0. 0.                   ! PC_GS_KD			- Gain-schedule table: pitch controller kd gains
0. 0. 0. 0. 0. 0. 0. 0. 0. 0. 0. 0. 0. 0. 0. 0. 0. 0. 0. 0. 0. 0. 0. 0. 0. 0. 0. 0. 0. 0. 0. 0. 0. 0. 0. 0. 0. 0. 0. 0. 0. 0. 0. 0. 0. 0. 0. 0. 0. 0. 0. 0. 0. 0. 0. 0. 0. 0. 0. 0. 0. 0. 0. 0. 0. 0. 0. 0. 0. 0. 0. 0. 0. 0. 0. 0. 0. 0. 0. 0. 0. 0. 0. 0. 0. 0. 0. 0. 0. 0. 0. 0. 0. 0. 0. 0. 0. 0. 0. 0. 0. 0. 0. 0. 0. 0. 0. 0. 0. 0. 0. 0. 0. 0. 0. 0. 0. 0. 0. 0. 0. 0. 0. 0. 0. 0. 0. 0. 0. 0.                   ! PC_GS_TF			- Gain-schedule table: pitch controller tf gains (derivative filter)
1.5707				! PC_MaxPit			- Maximum physical pitch limit, [rad].
-0.087266			! PC_MinPit			- Minimum physical pitch limit, [rad].
0.13962				! PC_MaxRat			- Maximum pitch rate (in absolute value) in pitch controller, [rad/s].
-0.13962			! PC_MinRat			- Minimum pitch rate (in absolute value) in pitch controller, [rad/s].
0.7843509658462516			        ! PC_RefSpd			- Desired (reference) HSS speed for pitch controller, [rad/s].
0.0					! PC_FinePit		- Record 5: Below-rated pitch angle set-point, [rad]
0.003490658			! PC_Switch			- Angle above lowest minimum pitch angle for switch, [rad]
0					! Z_EnableSine		- Enable/disable sine pitch excitation, used to validate for dynamic induction control, will be removed later, [-]
0.0349066			! Z_PitchAmplitude	- Amplitude of sine pitch excitation, [rad]
0					! Z_PitchFrequency	- Frequency of sine pitch excitation, [rad/s]

!------- INDIVIDUAL PITCH CONTROL -----------------------------------------
0.0			        ! IPC_IntSat		- Integrator saturation (maximum signal amplitude contribution to pitch from IPC), [rad]
0.0 0.0				! IPC_KI			- Integral gain for the individual pitch controller: first parameter for 1P reductions, second for 2P reductions, [-]
0.0	0.0		        ! IPC_aziOffset		- Phase offset added to the azimuth angle for the individual pitch controller, [rad]. 
0.0					! IPC_CornerFreqAct - Corner frequency of the first-order actuators model, to induce a phase lag in the IPC signal {0: Disable}, [rad/s]

!------- VS TORQUE CONTROL ------------------------------------------------
200.0				    ! VS_GenEff			- Generator efficiency mechanical power -> electrical power, [should match the efficiency defined in the generator properties!], [-]
19124091.96030785			        ! VS_ArSatTq		- Above rated generator torque PI control saturation, [Nm]
150000.0			! VS_MaxRat			- Maximum torque rate (in absolute value) in torque controller, [Nm/s].
21036501.15633864			        ! VS_MaxTq			- Maximum generator torque in Region 3 (HSS side), [Nm].
0.0					! VS_MinTq			- Minimum generator (HSS side), [Nm].
0.0				    ! VS_MinOMSpd		- Optimal mode minimum speed, cut-in speed towards optimal mode gain path, [rad/s]
0.0 			    ! VS_Rgn2K			- Generator torque constant in Region 2 (HSS side), [N-m/(rad/s)^2]
15000000			        ! VS_RtPwr			- Wind turbine rated power [W]
19124091.96030785			        ! VS_RtTq			- Rated torque, [Nm].
0.7843509658462516				    ! VS_RefSpd			- Rated generator speed [rad/s]
1					! VS_n				- Number of generator PI torque controller gains
-148108230.22944772				    ! VS_KP				- Proportional gain for generator PI torque controller [1/(rad/s) Nm]. (Only used in the transitional 2.5 region if VS_ControlMode =/ 2)
-33477257.539619997	 			    ! VS_KI				- Integral gain for generator PI torque controller [1/rad Nm]. (Only used in the transitional 2.5 region if VS_ControlMode =/ 2)

!------- SETPOINT SMOOTHER ---------------------------------------------
30                  ! SS_VSGainBias     - Variable speed torque controller gain bias, [(rad/s)/rad].
0.001               ! SS_PCGainBias     - Collective pitch controller gain bias, [(rad/s)/Nm].

!------- WIND SPEED ESTIMATOR ---------------------------------------------
120.0				    ! WE_BladeRadius	- Blade length [m]
4					! WE_CP_n			- Amount of parameters in the Cp array
0.0 0.0 0.0 0.0	    ! WE_CP - Parameters that define the parameterized CP(lambda) function
0.0					! WE_Gamma			- Adaption gain of the wind speed estimator algorithm [m/rad]
1.0					! WE_GearboxRatio	- Gearbox ratio [>=1],  [-]
371969528.218		            ! WE_Jtot			- Total drivetrain inertia, including blades, hub and casted generator inertia to LSS, [kg m^2]
1.225				! WE_RhoAir			- Air density, [kg m^-3]
"Cp_Ct_Cq.txt"      ! PerfFileName      - File containing rotor performance tables (Cp,Ct,Cq)
50 29               ! PerfTableSize     - Size of rotor performance tables, first number refers to number of blade pitch angles, second number referse to number of tip-speed ratios
210                  ! WE_FOPoles_N      - Number of first-order system poles used in EKF
 4.   4.1  4.2  4.3  4.4  4.5  4.6  4.7  4.8  4.9  5.   5.1  5.2  5.3  5.4  5.5  5.6  5.7  5.8  5.9  6.   6.1  6.2  6.3  6.4  6.5  6.6  6.7  6.8  6.9  7.   7.1  7.2  7.3  7.4  7.5  7.6  7.7  7.8  7.9  8.   8.1  8.2  8.3  8.4  8.5  8.6  8.7  8.8  8.9  9.   9.1  9.2  9.3  9.4  9.5  9.6  9.7  9.8  9.9 10.  10.1 10.2 10.3 10.4 10.5 10.6 10.7 10.8 10.9 11.  11.1 11.2 11.3 11.4 11.5 11.6 11.7 11.8 11.9 12.  12.1 12.2 12.3 12.4 12.5 12.6 12.7 12.8 12.9 13.  13.1 13.2 13.3 13.4 13.5 13.6 13.7 13.8 13.9 14.  14.1 14.2 14.3 14.4 14.5 14.6 14.7 14.8 14.9 15.  15.1 15.2 15.3 15.4 15.5 15.6 15.7 15.8 15.9 16.  16.1 16.2 16.3 16.4 16.5 16.6 16.7 16.8 16.9 17.  17.1 17.2 17.3 17.4 17.5 17.6 17.7 17.8 17.9 18.  18.1 18.2 18.3 18.4 18.5 18.6 18.7 18.8 18.9 19.  19.1 19.2 19.3 19.4 19.5 19.6 19.7 19.8 19.9 20.  20.1 20.2 20.3 20.4 20.5 20.6 20.7 20.8 20.9 21.  21.1 21.2 21.3 21.4 21.5 21.6 21.7 21.8 21.9 22.  22.1 22.2 22.3 22.4 22.5 22.6 22.7 22.8 22.9 23.  23.1 23.2 23.3 23.4 23.5 23.6 23.7 23.8 23.9 24.  24.1 24.2 24.3 24.4 24.5 24.6 24.7 24.8 24.9                  ! WE_FOPoles_v      - Wind speeds corresponding to first-order system poles [m/s]
-0.02182698 -0.02237265 -0.02291833 -0.023464   -0.02400968 -0.02455535 -0.02510103 -0.0256467  -0.02619238 -0.02673805 -0.02728373 -0.0278294 -0.02837507 -0.02892075 -0.02946642 -0.0300121  -0.03055777 -0.03110345 -0.03164912 -0.0321948  -0.03274047 -0.03328615 -0.03383182 -0.03437749 -0.03492317 -0.03546884 -0.03601452 -0.03656019 -0.03710587 -0.03765154 -0.03819722 -0.03874289 -0.03928856 -0.03983424 -0.04037991 -0.04092559 -0.04147126 -0.04201694 -0.04256261 -0.04310829 -0.04365396 -0.04419964 -0.04474531 -0.04529098 -0.04583666 -0.04638233 -0.04692801 -0.04747368 -0.04801936 -0.04856503 -0.04911071 -0.04965638 -0.05020206 -0.05074773 -0.0512934  -0.05183908 -0.05238475 -0.05293043 -0.0534761  -0.05402178 -0.05456745 -0.05511313 -0.0556588  -0.05620447 -0.05675015 -0.05729582 -0.0578415  -0.05838717 -0.05893285 -0.05947852 -0.0600242  -0.06056987 -0.06111555 -0.06166122 -0.06220689 -0.06275257 -0.06329824 -0.06384392 -0.06438959 -0.06493527 -0.04192472 -0.03734837 -0.03625644 -0.03619486 -0.03659154 -0.03729807 -0.03822267 -0.03930542 -0.04046024 -0.04172667 -0.04312191 -0.04451866 -0.04603257 -0.0476028  -0.04923952 -0.05089607 -0.05261981 -0.05440044 -0.05624265 -0.05810906 -0.06005459 -0.06200983 -0.06405043 -0.066083   -0.06818648 -0.07032471 -0.07249514 -0.07474984 -0.0769916  -0.07930768 -0.08165457 -0.08400499 -0.08642211 -0.08884232 -0.0912968  -0.09381915 -0.09632587 -0.09888612 -0.10150865 -0.10409487 -0.10673161 -0.10942295 -0.11207759 -0.11477414 -0.11751813 -0.12023275 -0.12298153 -0.12578389 -0.1285863  -0.13141073 -0.13428423 -0.13716846 -0.14003055 -0.14293467 -0.14588502 -0.14880388 -0.15176369 -0.15476581 -0.15776581 -0.16076177 -0.1637993  -0.166877   -0.16991409 -0.17297997 -0.17607883 -0.17918632 -0.18226842 -0.18538132 -0.18853031 -0.19167543 -0.19482914 -0.19802386 -0.20125563 -0.20446385 -0.20768338 -0.21093088 -0.21420702 -0.21744829 -0.22071028 -0.22400252 -0.22732544 -0.2306147 -0.23392673 -0.23726588 -0.24063225 -0.24396561 -0.24731925 -0.25070129 -0.25411157 -0.25750212 -0.26090376 -0.26432826 -0.26777625 -0.27120856 -0.27464169 -0.2781032  -0.28159356 -0.28509322 -0.28858474 -0.29209816 -0.2956323  -0.29918383 -0.30269991 -0.30623693 -0.30979635 -0.31337951 -0.3169488  -0.32052029 -0.32411052 -0.32771699 -0.33132826 -0.334919 -0.33852414 -0.34214774 -0.345794   -0.34943546 -0.35308953 -0.35676855 -0.36047177 -0.36419189 -0.36788583 -0.37159895 -0.37532853 -0.37907152 -0.38280633 -0.38653002 -0.39026648 -0.39402036 -0.39779633 -0.40157054                  ! WE_FOPoles        - First order system poles

!------- YAW CONTROL ------------------------------------------------------
0.0			        ! Y_ErrThresh		- Yaw error threshold. Turbine begins to yaw when it passes this. [rad^2 s]
0.0				    ! Y_IPC_IntSat		- Integrator saturation (maximum signal amplitude contribution to pitch from yaw-by-IPC), [rad]
1					! Y_IPC_n			- Number of controller gains (yaw-by-IPC)
0.0				    ! Y_IPC_KP			- Yaw-by-IPC proportional controller gain Kp
0.0				    ! Y_IPC_KI			- Yaw-by-IPC integral controller gain Ki
0.0			        ! Y_IPC_omegaLP		- Low-pass filter corner frequency for the Yaw-by-IPC controller to filtering the yaw alignment error, [rad/s].
0.0					! Y_IPC_zetaLP		- Low-pass filter damping factor for the Yaw-by-IPC controller to filtering the yaw alignment error, [-].
0.0			        ! Y_MErrSet			- Yaw alignment error, set point [rad]
0.0					! Y_omegaLPFast		- Corner frequency fast low pass filter, 1.0 [Hz]
0.0			        ! Y_omegaLPSlow		- Corner frequency slow low pass filter, 1/60 [Hz]
0.0			        ! Y_Rate			- Yaw rate [rad/s]

!------- TOWER FORE-AFT DAMPING -------------------------------------------
-1					! FA_KI				- Integral gain for the fore-aft tower damper controller, -1 = off / >0 = on [rad s/m] - !NJA - Make this a flag
0.0                 ! FA_HPF_CornerFreq	- Corner frequency (-3dB point) in the high-pass filter on the fore-aft acceleration signal [rad/s]
0.0			        ! FA_IntSat			- Integrator saturation (maximum signal amplitude contribution to pitch from FA damper), [rad]

!------- PEAK SHAVING -------------------------------------------
210                  ! PS_BldPitchMin_N  - Number of values in minimum blade pitch lookup table (should equal number of values in PS_WindSpeeds and PS_BldPitchMin)
 4.   4.1  4.2  4.3  4.4  4.5  4.6  4.7  4.8  4.9  5.   5.1  5.2  5.3  5.4  5.5  5.6  5.7  5.8  5.9  6.   6.1  6.2  6.3  6.4  6.5  6.6  6.7  6.8  6.9  7.   7.1  7.2  7.3  7.4  7.5  7.6  7.7  7.8  7.9  8.   8.1  8.2  8.3  8.4  8.5  8.6  8.7  8.8  8.9  9.   9.1  9.2  9.3  9.4  9.5  9.6  9.7  9.8  9.9 10.  10.1 10.2 10.3 10.4 10.5 10.6 10.7 10.8 10.9 11.  11.1 11.2 11.3 11.4 11.5 11.6 11.7 11.8 11.9 12.  12.1 12.2 12.3 12.4 12.5 12.6 12.7 12.8 12.9 13.  13.1 13.2 13.3 13.4 13.5 13.6 13.7 13.8 13.9 14.  14.1 14.2 14.3 14.4 14.5 14.6 14.7 14.8 14.9 15.  15.1 15.2 15.3 15.4 15.5 15.6 15.7 15.8 15.9 16.  16.1 16.2 16.3 16.4 16.5 16.6 16.7 16.8 16.9 17.  17.1 17.2 17.3 17.4 17.5 17.6 17.7 17.8 17.9 18.  18.1 18.2 18.3 18.4 18.5 18.6 18.7 18.8 18.9 19.  19.1 19.2 19.3 19.4 19.5 19.6 19.7 19.8 19.9 20.  20.1 20.2 20.3 20.4 20.5 20.6 20.7 20.8 20.9 21.  21.1 21.2 21.3 21.4 21.5 21.6 21.7 21.8 21.9 22.  22.1 22.2 22.3 22.4 22.5 22.6 22.7 22.8 22.9 23.  23.1 23.2 23.3 23.4 23.5 23.6 23.7 23.8 23.9 24.  24.1 24.2 24.3 24.4 24.5 24.6 24.7 24.8 24.9                  ! PS_WindSpeeds       - Wind speeds corresponding to minimum blade pitch angles [m/s]
0.00000000e+00 0.00000000e+00 0.00000000e+00 0.00000000e+00 0.00000000e+00 0.00000000e+00 0.00000000e+00 0.00000000e+00 0.00000000e+00 0.00000000e+00 0.00000000e+00 0.00000000e+00 0.00000000e+00 0.00000000e+00 0.00000000e+00 0.00000000e+00 0.00000000e+00 0.00000000e+00 0.00000000e+00 0.00000000e+00 0.00000000e+00 0.00000000e+00 0.00000000e+00 0.00000000e+00 0.00000000e+00 0.00000000e+00 0.00000000e+00 0.00000000e+00 0.00000000e+00 0.00000000e+00 0.00000000e+00 0.00000000e+00 0.00000000e+00 0.00000000e+00 0.00000000e+00 0.00000000e+00 0.00000000e+00 0.00000000e+00 0.00000000e+00 0.00000000e+00 0.00000000e+00 0.00000000e+00 0.00000000e+00 0.00000000e+00 0.00000000e+00 0.00000000e+00 0.00000000e+00 0.00000000e+00 0.00000000e+00 0.00000000e+00 0.00000000e+00 0.00000000e+00 0.00000000e+00 0.00000000e+00 0.00000000e+00 0.00000000e+00 0.00000000e+00 0.00000000e+00 0.00000000e+00 0.00000000e+00 0.00000000e+00 0.00000000e+00 0.00000000e+00 0.00000000e+00 0.00000000e+00 2.54915746e-04 6.18743283e-03 1.18510162e-02 1.72789289e-02 2.23784803e-02 2.72870512e-02 3.19142486e-02 3.63525483e-02 4.05472756e-02 4.45946000e-02 4.84239559e-02 5.21547042e-02 5.56782065e-02 5.91059794e-02 6.24093652e-02 2.77446046e-02 3.02909867e-02 3.28247505e-02 3.53348122e-02 3.77753896e-02 4.02082952e-02 4.26348101e-02 4.50168410e-02 4.73665267e-02 4.97122296e-02 5.20549722e-02 5.43420859e-02 5.66188392e-02 5.88940880e-02 6.11667250e-02 6.33843296e-02 6.56012584e-02 6.78181265e-02 7.00300798e-02 7.21929484e-02 7.43564227e-02 7.65212181e-02 7.86845122e-02 8.08009724e-02 8.29189964e-02 8.50392450e-02 8.71623591e-02 8.92410071e-02 9.13190517e-02 9.33994074e-02 9.54826295e-02 9.75324100e-02 9.95729130e-02 1.01616470e-01 1.03663670e-01 1.05690804e-01 1.07695442e-01 1.09703584e-01 1.11715937e-01 1.13726619e-01 1.15701983e-01 1.17680770e-01 1.19663404e-01 1.21650347e-01 1.23608177e-01 1.25557277e-01 1.27509926e-01 1.29466654e-01 1.31415730e-01 1.33335534e-01 1.35259414e-01 1.37187962e-01 1.39121793e-01 1.41029401e-01 1.42930000e-01 1.44834949e-01 1.46744637e-01 1.48652253e-01 1.50526412e-01 1.52404698e-01 1.54287553e-01 1.56175437e-01 1.58046123e-01 1.59900593e-01 1.61759610e-01 1.63623602e-01 1.65493009e-01 1.67331310e-01 1.69166544e-01 1.71006455e-01 1.72851543e-01 1.74698411e-01 1.76511521e-01 1.78329089e-01 1.80151509e-01 1.81979183e-01 1.83800075e-01 1.85596954e-01 1.87398431e-01 1.89204893e-01 1.91016737e-01 1.92814533e-01 1.94594450e-01 1.96379105e-01 1.98168898e-01 1.99964243e-01 2.01741996e-01 2.03507762e-01 2.05278274e-01 2.07053896e-01 2.08835004e-01 2.10594794e-01 2.12345557e-01 2.14101260e-01 2.15862230e-01 2.17628804e-01 2.19371942e-01 2.21106985e-01 2.22846788e-01 2.24591696e-01 2.26342060e-01 2.28069093e-01 2.29787475e-01 2.31510614e-01 2.33238859e-01 2.34972567e-01 2.36689181e-01 2.38397018e-01 2.40109688e-01 2.41827525e-01 2.43550875e-01 2.45257394e-01 2.46949428e-01 2.48646234e-01 2.50348108e-01 2.52055353e-01 2.53752368e-01 2.55430975e-01 2.57114341e-01 2.58802796e-01 2.60496666e-01 2.62187020e-01 2.63851789e-01 2.65520968e-01 2.67194826e-01 2.68873642e-01 2.70557032e-01 2.72210360e-01 2.73868008e-01 2.75530238e-01                  ! PS_BldPitchMin          - Minimum blade pitch angles [rad]
