------- HydroDyn v2.03.* Input File -------------------------------------------- 
IEA 15 MW offshore reference model on UMaine VolturnUS-S semi-submersible floating platform
False            Echo           - Echo the input file data (flag) 
---------------------- ENVIRONMENTAL CONDITIONS -------------------------------- 
        1025     WtrDens        - Water density (kg/m^3) 
         200     WtrDpth        - Water depth (meters) 
           0     MSL2SWL        - Offset between still-water level and mean sea level (meters) [positive upward; unused when WaveMod = 6; must be zero if PotMod=1 or 2] 
---------------------- WAVES --------------------------------------------------- 
           2     WaveMod     - Incident wave kinematics model {0: none=still water, 1: regular (periodic), 1P#: regular with user-specified phase, 2: JONSWAP/Pierson-Moskowitz spectrum (irregular), 3: White noise spectrum (irregular), 4: user-defined spectrum from routine UserWaveSpctrm (irregular), 5: Externally generated wave-elevation time series, 6: Externally generated full wave-kinematics time series [option 6 is invalid for PotMod/=0]} (switch)
           0     WaveStMod      - Model for stretching incident wave kinematics to instantaneous free surface {0: none=no stretching, 1: vertical stretching, 2: extrapolation stretching, 3: Wheeler stretching} (switch) [unused when WaveMod=0 or when PotMod/=0] 
         850.00  WaveTMax       - Analysis time for incident wave calculations (sec) [unused when WaveMod=0; determines WaveDOmega=2Pi/WaveTMax in the IFFT] 
           0.25  WaveDT         - Time step for incident wave calculations     (sec) [unused when WaveMod=0; 0.1<=WaveDT<=1.0 recommended; determines WaveOmegaMax=Pi/WaveDT in the IFFT] 
           1.10  WaveHs         - Significant wave height of incident waves (meters) [used only when WaveMod=1 or 2] 
           8.52  WaveTp         - Peak spectral period of incident waves (sec) [used only when WaveMod=1 or 2] 
        DEFAULT  WavePkShp      - Peak-shape parameter of incident wave spectrum (-) or DEFAULT (string) [used only when WaveMod=2; use 1.0 for Pierson-Moskowitz]   
       0.111527  WvLowCOff      - Low  cut-off frequency or lower frequency limit of the wave spectrum beyond which the wave spectrum is zeroed (rad/s) [unused when WaveMod=0, 1, or 6] 
            3.2  WvHiCOff       - High cut-off frequency or upper frequency limit of the wave spectrum beyond which the wave spectrum is zeroed (rad/s) [unused when WaveMod=0, 1, or 6] 
           0.00  WaveDir        - Incident wave propagation heading direction                         (degrees) [unused when WaveMod=0 or 6]   
           0     WaveDirMod     - Directional spreading function {0: none, 1: COS2S}                  (-)       [only used when WaveMod=2,3, or 4] 
           1     WaveDirSpread  - Wave direction spreading coefficient ( > 0 )                        (-)       [only used when WaveMod=2,3, or 4 and WaveDirMod=1] 
           1     WaveNDir       - Number of wave directions                                           (-)       [only used when WaveMod=2,3, or 4 and WaveDirMod=1; odd number only] 
          90     WaveDirRange   - Range of wave directions (full range: WaveDir +/- 1/2*WaveDirRange) (degrees) [only used when WaveMod=2,3,or 4 and WaveDirMod=1] 
  -561580799     WaveSeed(1)    - First  random seed of incident waves [-2147483648 to 2147483647]    (-)       [unused when WaveMod=0, 5, or 6] 
      RANLUX     WaveSeed(2)    - Second random seed of incident waves [-2147483648 to 2147483647]    (-)       [unused when WaveMod=0, 5, or 6] 
        TRUE     WaveNDAmp      - Flag for normally distributed amplitudes                            (flag)    [only used when WaveMod=2, 3, or 4] 
       "none"    WvKinFile      - Root name of externally generated wave data file(s)        (quoted string)    [used only when WaveMod=5 or 6] 
           1     NWaveElev      - Number of points where the incident wave elevations can be computed (-)       [maximum of 9 output locations] 
           0     WaveElevxi     - List of xi-coordinates for points where the incident wave elevations can be output (meters) [NWaveElev points, separated by commas or white space; usused if NWaveElev = 0] 
           0     WaveElevyi     - List of yi-coordinates for points where the incident wave elevations can be output (meters) [NWaveElev points, separated by commas or white space; usused if NWaveElev = 0] 
---------------------- 2ND-ORDER WAVES ----------------------------------------- [unused with WaveMod=0 or 6] 
        True     WvDiffQTF      - Full difference-frequency 2nd-order wave kinematics (flag) 
        True     WvSumQTF       - Full summation-frequency  2nd-order wave kinematics (flag) 
           0     WvLowCOffD     - Low  frequency cutoff used in the difference-frequencies (rad/s) [Only used with a difference-frequency method] 
      0.737863   WvHiCOffD      - High frequency cutoff used in the difference-frequencies (rad/s) [Only used with a difference-frequency method] 
      0.314159   WvLowCOffS     - Low  frequency cutoff used in the summation-frequencies  (rad/s) [Only used with a summation-frequency  method] 
      3.2        WvHiCOffS      - High frequency cutoff used in the summation-frequencies  (rad/s) [Only used with a summation-frequency  method] 
---------------------- CURRENT ------------------------------------------------- [unused with WaveMod=6] 
           0     CurrMod        - Current profile model {0: none=no current, 1: standard, 2: user-defined from routine UserCurrent} (switch) 
           0     CurrSSV0       - Sub-surface current velocity at still water level  (m/s) [used only when CurrMod=1] 
    "DEFAULT"    CurrSSDir      - Sub-surface current heading direction (degrees) or DEFAULT (string) [used only when CurrMod=1] 
          20     CurrNSRef      - Near-surface current reference depth            (meters) [used only when CurrMod=1] 
           0     CurrNSV0       - Near-surface current velocity at still water level (m/s) [used only when CurrMod=1] 
           0     CurrNSDir      - Near-surface current heading direction         (degrees) [used only when CurrMod=1] 
           0     CurrDIV        - Depth-independent current velocity                 (m/s) [used only when CurrMod=1] 
           0     CurrDIDir      - Depth-independent current heading direction    (degrees) [used only when CurrMod=1] 
---------------------- FLOATING PLATFORM --------------------------------------- [unused with WaveMod=6] 
           1     PotMod         - Potential-flow model {0: none=no potential flow, 1: frequency-to-time-domain transforms based on WAMIT output, 2: fluid-impulse theory (FIT)} (switch) 
"HydroData/IEA-15-240-RWT-UMaineSemi"         PotFile        - Root name of potential-flow model data; WAMIT output files containing the linear, nondimensionalized, hydrostatic restoring matrix (.hst), frequency-dependent hydrodynamic added mass matrix and damping matrix (.1), and frequency- and direction-dependent wave excitation force vector per unit wave amplitude (.3) (quoted string) [MAKE SURE THE FREQUENCIES INHERENT IN THESE WAMIT FILES SPAN THE PHYSICALLY-SIGNIFICANT RANGE OF FREQUENCIES FOR THE GIVEN PLATFORM; THEY MUST CONTAIN THE ZERO- AND INFINITE-FREQUENCY LIMITS!] 
           1     WAMITULEN      - Characteristic body length scale used to redimensionalize WAMIT output (meters) [only used when PotMod=1] 
   20206.34889   PtfmVol0       - Displaced volume of water when the platform is in its undisplaced position (m^3) [only used when PotMod=1; USE THE SAME VALUE COMPUTED BY WAMIT AS OUTPUT IN THE .OUT FILE!] 
           0     PtfmCOBxt      - The xt offset of the center of buoyancy (COB) from the platform reference point (meters)  [only used when PotMod=1] 
           0     PtfmCOByt      - The yt offset of the center of buoyancy (COB) from the platform reference point (meters)  [only used when PotMod=1]
           1     ExctnMod       - Wave Excitation model {0: None, 1: DFT, 2: state-space} (switch) [only used when PotMod=1; STATE-SPACE REQUIRES *.ssexctn INPUT FILE]
           1     RdtnMod        - Radiation memory-effect model {0: no memory-effect calculation, 1: convolution, 2: state-space} (switch) [only used when PotMod=1; STATE-SPACE REQUIRES *.ss INPUT FILE] 
          60     RdtnTMax       - Analysis time for wave radiation kernel calculations (sec) [only used when PotMod=1; determines RdtnDOmega=Pi/RdtnTMax in the cosine transform; MAKE SURE THIS IS LONG ENOUGH FOR THE RADIATION IMPULSE RESPONSE FUNCTIONS TO DECAY TO NEAR-ZERO FOR THE GIVEN PLATFORM!] 
    "DEFAULT"    RdtnDT         - Time step for wave radiation kernel calculations (sec) [only used when PotMod=1; DT<=RdtnDT<=0.1 recommended; determines RdtnOmegaMax=Pi/RdtnDT in the cosine transform] 
---------------------- 2ND-ORDER FLOATING PLATFORM FORCES ---------------------- [unused with WaveMod=0 or 6, or PotMod=0 or 2] 
           0     MnDrift        - Mean-drift 2nd-order forces computed                                       {0: None; [7, 8, 9, 10, 11, or 12]: WAMIT file to use} [Only one of MnDrift, NewmanApp, or DiffQTF can be non-zero] 
           0     NewmanApp      - Mean- and slow-drift 2nd-order forces computed with Newman's approximation {0: None; [7, 8, 9, 10, 11, or 12]: WAMIT file to use} [Only one of MnDrift, NewmanApp, or DiffQTF can be non-zero. Used only when WaveDirMod=0] 
		      12     DiffQTF        - Full difference-frequency 2nd-order forces computed with full QTF          {0: None; [10, 11, or 12]: WAMIT file to use}          [Only one of MnDrift, NewmanApp, or DiffQTF can be non-zero]  
           0     SumQTF         - Full summation -frequency 2nd-order forces computed with full QTF          {0: None; [10, 11, or 12]: WAMIT file to use} 
---------------------- FLOATING PLATFORM FORCE FLAGS  -------------------------- [unused with WaveMod=6] 
True             PtfmSgF        - Platform horizontal surge translation force (flag) or DEFAULT 
True             PtfmSwF        - Platform horizontal sway translation force (flag) or DEFAULT 
True             PtfmHvF        - Platform vertical heave translation force (flag) or DEFAULT 
True             PtfmRF         - Platform roll tilt rotation force (flag) or DEFAULT 
True             PtfmPF         - Platform pitch tilt rotation force (flag) or DEFAULT 
True             PtfmYF         - Platform yaw rotation force (flag) or DEFAULT 
---------------------- PLATFORM ADDITIONAL STIFFNESS AND DAMPING  -------------- 
             0             0             0             0             0             0   AddF0    - Additional preload (N, N-m) 
             0             0             0             0             0             0   AddCLin  - Additional linear stiffness (N/m, N/rad, N-m/m, N-m/rad) 
             0             0             0             0             0             0 
             0             0             0             0             0             0 
             0             0             0             0             0             0 
             0             0             0             0             0             0 
             0             0             0             0             0             0 
             0             0             0             0             0             0   AddBLin  - Additional linear damping(N/(m/s), N/(rad/s), N-m/(m/s), N-m/(rad/s)) 
             0             0             0             0             0             0 
             0             0             0             0             0             0 
             0             0             0             0             0             0 
             0             0             0             0             0             0 
             0             0             0             0             0             0 
9.23E+05	0.00E+00	0.00E+00	0.00E+00	-8.92E+06	0.00E+00 AddBQuad - Additional quadratic drag(N/(m/s)^2, N/(rad/s)^2, N-m(m/s)^2, N-m/(rad/s)^2) 
0.00E+00	9.23E+05	0.00E+00	8.92E+06	0.00E+00	0.00E+00
0.00E+00	0.00E+00	2.30E+06	0.00E+00	0.00E+00	0.00E+00
0.00E+00	8.92E+06	0.00E+00	1.68E+10	0.00E+00	0.00E+00
-8.92E+06	0.00E+00	0.00E+00	0.00E+00	1.68E+10	0.00E+00
0.00E+00	0.00E+00	0.00E+00	0.00E+00	0.00E+00	4.80E+10
---------------------- AXIAL COEFFICIENTS --------------------------------------                                                                                                                                                                1   NAxCoef        - Number of axial coefficients (-)
AxCoefID  AxCd     AxCa     AxCp
    (-)    (-)      (-)      (-)
    1     0.00     0.00     0.00
---------------------- MEMBER JOINTS -------------------------------------------
75                     NJoints     - Number of joints (-)   [must be exactly 0 or at least 2]
  JointID     Jointxi     Jointyi     Jointzi    JointAxID  JointOvrlp    [JointOvrlp= 0: do nothing at joint, 1: eliminate overlaps by calculating super member]
    (-)         (m)         (m)         (m)         (-)      (switch)  
     1        -51.75      1.9e-07      -20.0         1           0     
     2        -51.75      1.9e-07     -19.95         1           0     
     3        -51.75      1.9e-07     -18.275        1           0     
     4        -51.75      1.9e-07     -18.25         1           0     
     5        -51.75      1.9e-07     -18.225        1           0     
     6        -51.75      1.9e-07      -16.5         1           0     
     7        -51.75      1.9e-07     -14.001        1           0     
     8        -51.75      1.9e-07     -13.025        1           0     
     9        -51.75      1.9e-07      -13.0         1           0     
    10        -51.75      1.9e-07     -12.975        1           0     
    11        -51.75      1.9e-07     14.545         1           0     
    12        -51.75      1.9e-07      14.95         1           0     
    13        -51.75      1.9e-07      15.0          1           0     
    14         -45.5      1.6e-07      -16.5         1           0     
    15         -45.5      1.6e-07     14.545         1           0     
    16        -45.48      1.6e-07      -16.5         1           0     
    17        -45.48      1.6e-07     14.545         1           0     
    18        -25.875      9e-08       -16.5         1           0     
    19        -25.875      9e-08      14.545         1           0     
    20         -5.02       2e-08       -16.5         1           0     
    21         -5.02       2e-08      14.545         1           0     
    22         -5.0        2e-08       -16.5         1           0     
    23         -5.0        2e-08      14.545         1           0     
    24          0.0         0.0        -20.0         1           0     
    25          0.0         0.0       -19.95         1           0     
    26          0.0         0.0        -16.5         1           0     
    27          0.0         0.0       14.545         1           0     
    28          0.0         0.0        14.95         1           0     
    29          0.0         0.0        15.0          1           0     
    30      2.49999979  -4.33012714    -16.5         1           0     
    31      2.49999979  -4.33012714   14.545         1           0     
    32      2.49999983  4.33012712     -16.5         1           0     
    33      2.50000022  4.33012689    14.545         1           0     
    34      2.50999979  -4.34744765    -16.5         1           0     
    35      2.50999979  -4.34744765   14.545         1           0     
    36      2.50999983  4.34744762     -16.5         1           0     
    37      2.51000022   4.3474474    14.545         1           0     
    38      12.93749891 -22.40840795    -16.5         1           0     
    39      12.93749891 -22.40840795   14.545         1           0     
    40      12.93749913 22.40840782    -16.5         1           0     
    41      12.93750112 22.40840668   14.545         1           0     
    42      22.73999808 -39.38683647    -16.5         1           0     
    43      22.73999808 -39.38683647   14.545         1           0     
    44      22.73999847 39.38683625    -16.5         1           0     
    45      22.74000197 39.38683423   14.545         1           0     
    46      22.74999808 -39.40415698    -16.5         1           0     
    47      22.74999808 -39.40415698   14.545         1           0     
    48      22.74999847 39.40415675    -16.5         1           0     
    49      22.75000197 39.40415474   14.545         1           0     
    50      25.87499781 -44.81681591    -20.0         1           0     
    51      25.87499781 -44.81681591   -19.95         1           0     
    52      25.87499781 -44.81681591   -18.275        1           0     
    53      25.87499781 -44.81681591   -18.25         1           0     
    54      25.87499781 -44.81681591   -18.225        1           0     
    55      25.87499781 -44.81681591    -16.5         1           0     
    56      25.87499781 -44.81681591   -14.001        1           0     
    57      25.87499781 -44.81681591   -13.025        1           0     
    58      25.87499781 -44.81681591    -13.0         1           0     
    59      25.87499781 -44.81681591   -12.975        1           0     
    60      25.87499781 -44.81681591   14.545         1           0     
    61      25.87499781 -44.81681591    14.95         1           0     
    62      25.87499781 -44.81681591    15.0          1           0     
    63      25.87499781 44.81681591    -20.0         1           0     
    64      25.87499782 44.8168159    -19.95         1           0     
    65      25.87499803 44.81681578   -18.275        1           0     
    66      25.87499804 44.81681578   -18.25         1           0     
    67      25.87499804 44.81681578   -18.225        1           0     
    68      25.87499826 44.81681565    -16.5         1           0     
    69      25.87499858 44.81681547   -14.001        1           0     
    70      25.87499871 44.81681539   -13.025        1           0     
    71      25.87499871 44.81681539    -13.0         1           0     
    72      25.87499871 44.81681539   -12.975        1           0     
    73      25.87500224 44.81681335   14.545         1           0     
    74      25.87500229 44.81681332    14.95         1           0     
    75      25.87500229 44.81681332    15.0          1           0     
---------------------- MEMBER CROSS-SECTION PROPERTIES -------------------------
77          NPropSets   - Number of member property sets (-)
 PropSetID     PropD     PropThck  
    (-)         (m)         (m)    
     1         10.0         5.0    
     2         10.0        0.05    
     3         10.0        0.05    
     4         10.0        0.05    
     5         10.0         5.0    
     6         12.5        6.25    
     7         12.5        0.05    
     8         12.5        6.25    
     9         12.5        6.25    
    10         12.5        0.05    
    11         12.5        0.05    
    12         12.5        0.05    
    13         12.5        6.25    
    14         12.5        6.25    
    15         12.5        0.05    
    16         12.5        0.05    
    17         12.5        6.25    
    18         12.5        6.25    
    19         12.5        0.05    
    20         12.5        6.25    
    21         12.5        6.25    
    22         12.5        0.05    
    23         12.5        0.05    
    24         12.5        0.05    
    25         12.5        6.25    
    26         12.5        6.25    
    27         12.5        0.05    
    28         12.5        0.05    
    29         12.5        6.25    
    30         12.5        6.25    
    31         12.5        0.05    
    32         12.5        6.25    
    33         12.5        6.25    
    34         12.5        0.05    
    35         12.5        0.05    
    36         12.5        0.05    
    37         12.5        6.25    
    38         12.5        6.25    
    39         12.5        0.05    
    40         12.5        0.05    
    41         12.5        6.25    
    42         0.91        0.02    
    43         0.91        0.455   
    44         0.91        0.02    
    45         0.91        0.02    
    46         0.91        0.455   
    47         0.91        0.02    
    48         0.91        0.02    
    49         0.91        0.455   
    50         0.91        0.02    
    51         0.91        0.02    
    52         0.91        0.455   
    53         0.91        0.02    
    54         0.91        0.02    
    55         0.91        0.455   
    56         0.91        0.02    
    57         0.91        0.02    
    58         0.91        0.455   
    59         0.91        0.02    
    60        9.6148       0.04    
    61        9.6148      4.8074   
    62        9.6148       0.04    
    63        9.6148       0.04    
    64        9.6148      4.8074   
    65        9.6148       0.04    
    66        9.6148       0.04    
    67        9.6148      4.8074   
    68        9.6148       0.04    
    69        9.6148       0.04    
    70        9.6148      4.8074   
    71        9.6148       0.04    
    72        9.6148       0.04    
    73        9.6148      4.8074   
    74        9.6148       0.04    
    75        9.6148       0.04    
    76        9.6148      4.8074   
    77        9.6148       0.04    
---------------------- SIMPLE HYDRODYNAMIC COEFFICIENTS (model 1) --------------
  SimplCd    SimplCdMG    SimplCa    SimplCaMG    SimplCp    SimplCpMG   SimplAxCa  SimplAxCaMG  SimplAxCp  SimplAxCpMG
    (-)         (-)         (-)         (-)         (-)         (-)         (-)         (-)         (-)         (-)    
    1.0         1.0         1.0         1.0         1.0         1.0         1.0         1.0         1.0         1.0    
---------------------- DEPTH-BASED HYDRODYNAMIC COEFFICIENTS (model 2) ---------
             0   NCoefDpth       - Number of depth-dependent coefficients (-)
Dpth      DpthCd   DpthCdMG   DpthCa   DpthCaMG       DpthCp   DpthCpMG   DpthAxCa   DpthAxCaMG       DpthAxCp   DpthAxCpMG
(m)       (-)      (-)        (-)      (-)            (-)      (-)          (-)        (-)              (-)         (-)
---------------------- MEMBER-BASED HYDRODYNAMIC COEFFICIENTS (model 3) --------
             0   NCoefMembers       - Number of member-based coefficients (-)
MemberID    MemberCd1     MemberCd2    MemberCdMG1   MemberCdMG2    MemberCa1     MemberCa2    MemberCaMG1   MemberCaMG2    MemberCp1     MemberCp2    MemberCpMG1   MemberCpMG2   MemberAxCa1   MemberAxCa2  MemberAxCaMG1 MemberAxCaMG2  MemberAxCp1  MemberAxCp2   MemberAxCpMG1   MemberAxCpMG2
   (-)         (-)           (-)           (-)           (-)           (-)           (-)           (-)           (-)           (-)           (-)           (-)           (-)           (-)           (-)           (-)           (-)           (-)           (-)           (-)           (-)
-------------------- MEMBERS -------------------------------------------------
77          NMembers    - Number of members (-)
 MemberID    MJointID1   MJointID2  MPropSetID1 MPropSetID2  MDivSize    MCoefMod     PropPot     [MCoefMod=1: use simple coeff table, 2: use depth-based coeff table, 3: use member-based coeff table] [ PropPot/=0 if member is modeled with potential-flow theory]
    (-)         (-)         (-)         (-)         (-)         (m)      (switch)     (flag)   
     1          24          25           1           1          0.5          1         FALSE   
     2          25          26           2           2          0.5          1         FALSE   
     3          26          27           3           3          0.5          1         FALSE   
     4          27          28           4           4          0.5          1         FALSE   
     5          28          29           5           5          0.5          1         FALSE   
     6           1           2           6           6          0.5          1         FALSE   
     7           2           3           7           7          0.5          1         FALSE   
     8           3           4           8           8          0.5          1         FALSE   
     9           4           5           9           9          0.5          1         FALSE   
    10           5           6          10          10          0.5          1         FALSE   
    11           6           7          11          11          0.5          1         FALSE   
    12           7           8          12          12          0.5          1         FALSE   
    13           8           9          13          13          0.5          1         FALSE   
    14           9          10          14          14          0.5          1         FALSE   
    15          10          11          15          15          0.5          1         FALSE   
    16          11          12          16          16          0.5          1         FALSE   
    17          12          13          17          17          0.5          1         FALSE   
    18          63          64          18          18          0.5          1         FALSE   
    19          64          65          19          19          0.5          1         FALSE   
    20          65          66          20          20          0.5          1         FALSE   
    21          66          67          21          21          0.5          1         FALSE   
    22          67          68          22          22          0.5          1         FALSE   
    23          68          69          23          23          0.5          1         FALSE   
    24          69          70          24          24          0.5          1         FALSE   
    25          70          71          25          25          0.5          1         FALSE   
    26          71          72          26          26          0.5          1         FALSE   
    27          72          73          27          27          0.5          1         FALSE   
    28          73          74          28          28          0.5          1         FALSE   
    29          74          75          29          29          0.5          1         FALSE   
    30          50          51          30          30          0.5          1         FALSE   
    31          51          52          31          31          0.5          1         FALSE   
    32          52          53          32          32          0.5          1         FALSE   
    33          53          54          33          33          0.5          1         FALSE   
    34          54          55          34          34          0.5          1         FALSE   
    35          55          56          35          35          0.5          1         FALSE   
    36          56          57          36          36          0.5          1         FALSE   
    37          57          58          37          37          0.5          1         FALSE   
    38          58          59          38          38          0.5          1         FALSE   
    39          59          60          39          39          0.5          1         FALSE   
    40          60          61          40          40          0.5          1         FALSE   
    41          61          62          41          41          0.5          1         FALSE   
    42          27          23          42          42          0.5          1         FALSE   
    43          23          21          43          43          0.5          1         FALSE   
    44          21          19          44          44          0.5          1         FALSE   
    45          19          17          45          45          0.5          1         FALSE   
    46          17          15          46          46          0.5          1         FALSE   
    47          15          11          47          47          0.5          1         FALSE   
    48          27          33          48          48          0.5          1         FALSE   
    49          33          37          49          49          0.5          1         FALSE   
    50          37          41          50          50          0.5          1         FALSE   
    51          41          45          51          51          0.5          1         FALSE   
    52          45          49          52          52          0.5          1         FALSE   
    53          49          73          53          53          0.5          1         FALSE   
    54          27          31          54          54          0.5          1         FALSE   
    55          31          35          55          55          0.5          1         FALSE   
    56          35          39          56          56          0.5          1         FALSE   
    57          39          43          57          57          0.5          1         FALSE   
    58          43          47          58          58          0.5          1         FALSE   
    59          47          60          59          59          0.5          1         FALSE   
    60          26          22          60          60          0.5          1         FALSE   
    61          22          20          61          61          0.5          1         FALSE   
    62          20          18          62          62          0.5          1         FALSE   
    63          18          16          63          63          0.5          1         FALSE   