This is the preliminary in-progress OpenFAST model for the IEA 15MW Floating Offshore Reference Turbine.

ver. 4.2
10/11/2019

Please note that this model has not been thoroughly tested yet!!

Due to the preliminary status of this model, a number of subsystems have yet to be included.  Current Limitations:
 - Monopile hydrodyn and subdyn files not yet included
 - Airfoils interpolated based on spanwise thickness, updated version will include a non-interpolated blade option


